FoamFile
{
	format ascii;
	class dictionary;
	object blockMeshDict;
}

convertToMeters 1;

vertices
(
	(-5 0 0)
	(18 0 0)
	(18 5 0)
	(-5 5 0)
	(-5 0 5)
	(18 0 5)
	(18 5 5)
	(-5 5 5)
);

blocks
(
	hex (0 1 2 3 4 5 6 7)
	(54 15 15) 
	simpleGrading (1 1 1)
);

boundary
(
	inlet
	{
		type patch;
		faces
		(
			(0 3 4 7)
		);
	}

	outlet
	{
		type patch;
		faces
		(
			(1 2 5 6)
		);
	}

	center	
	{
		type symmetryPlane;
		inGroups (freestream);
		faces
		(
			(0 1 2 3)
		);
	}

	left
	{
		type patch;
		inGroups (freestream);
		faces
		(
			(4 5 6 7)
		);
	}

	ground
	{
		type wall;
		faces
		(
			(0 1 4 5)
		);
	}

	top
	{
		type patch;
		inGroups (freestream);
		faces
		(
			(2 3 6 7)
		);
	}
);




