FoamFile
{
	format ascii;
	class dictionary;
	object blockMeshDict;
}

convertToMeters 1;

vertices
(
	(-3 0.25 2)
	(3 0.25 2)
	(3 0.25 -2)
	(-3 0.25 -2)
	(-3 4 2)
	(3 4 2)
	(3 4 -2)
	(-3 4 -2)
);

blocks
(
	hex (0 1 2 3 4 5 6 7)
	(180 150 150) 
	simpleGrading (1 1 1)
);

edges
(
	arc 0 3 (-4 0.25 0)
	arc 4 7 (-4 4 0)
	arc 1 2 (4 0.25 0)
	arc 5 6 (4 4 0)
);

boundary
(
	inlet
	{
		type patch;
		faces
		(
			(0 3 4 7)
		);
	}

	outlet
	{
		type patch;
		inGroups (freestream);
		faces
		(
			(1 2 5 6)
		);
	}

	bottom	
	{
		type patch;
		inGroups (freestream);
		faces
		(
			(2 3 6 7)
		);
	}

	top
	{
		type patch;
		inGroups (freestream);
		faces
		(
			(0 1 4 5)
		);
	}

	center
	{
		type symmetryPlane;
		faces
		(
			(0 1 2 3)
		);
	}

	side
	{
		type patch;
		inGroups (freestream);
		faces
		(
			(4 5 6 7)
		);
	}
);




