FoamFile
{
	format ascii;
	class dictionary;
	object blockMeshDict;
}

convertToMeters 1;

vertices
(
	(-5 0 6)
	(18 0 6)
	(18 0 1)
	(-5 0 1)
	(-5 5 6)
	(18 5 6)
	(18 5 1)
	(-5 5 1)
);

blocks
(
	hex (0 1 2 3 4 5 6 7)
	(37 8 8) 
	simpleGrading (1 1 1)
);

boundary
(
	inlet
	{
		type patch;
		faces
		(
			(0 3 4 7)
		);
	}

	outlet
	{
		type patch;
		inGroups (freestream);
		faces
		(
			(1 2 5 6)
		);
	}

	center	
	{
		type symmetryPlane;
		inGroups (freestream);
		faces
		(
			(2 3 6 7)
		);
	}

	left
	{
		type patch;
		inGroups (freestream);
		faces
		(
			(0 1 4 5)
		);
	}

	bottom	
	{
		type wall;
		faces
		(
			(0 1 2 3)
		);
	}

	top
	{
		type patch;
		inGroups (freestream);
		faces
		(
			(4 5 6 7)
		);
	}
);




