FoamFile
{
	format ascii;
	class dictionary;
	object controlDict;
}

application foamRun;
solver imcompressibleFluid;
startFrom latestTime;
startTime 0;
stopAt endTime;
endTime 1000;
deltaT 1;
writeControl timeStep;
writeInterval 10;
purgeWrite 0;
writeFormat binary;
writePrecision 6;
writeCompression off;
timeFormat general;
timePrecision 6;
runTimeModifiable true;

		
