FoamFile
{
	format ascii;
	class dictionary;
	object decomposeParDict;
}

numberOfSubdomains 6;

method scotch;
