FoamFile
{
	format ascii;
	class dictionary;
	object decomposeParDict;
}

numberOfSubdomains 6; //number of processor cores, use >> mpirun -np 6 foamRun -parallel

method scotch;
