FoamFile
{
	format ascii;
	class dictionary;
	object snappyHexMeshDict;
}

castellatedMesh true;
snap true;
addLayers true;
mergeTolerance 1e-6;
debug 0;

geometry
{
	body
	{
		type triSurfaceMesh;
		file "ahmedBody.stl";
	}

	refine
	{
		type searchableBox;
		min (-0.8 0 0);
		max (4.8 1.8 2.5);
	}
};

castellatedMeshControls
{
	locationInMesh (-1 0.1 1.1);
	maxLocalCells 800000;
	maxGlobalCells 5000000;
	minRefinementCells 5;
	maxLoadUnbalance 0.5;
	nCellsBetweenLevels 3;
	resolveFeatureAngle 30;
	allowFreeStandingZoneFaces false;

	refinementSurfaces
	{
		body
		{
			level (1 4);
		}
	}

	refinementRegions
	{
		refine
		{
			mode inside;
			level 3;
		}
	}	
} 

snapControls
{
	nSmoothPatch 3;
	tolerance 4;
	nSolveIter 30;
	nRelaxIter 5;
	nFeatureSnapIter 10;
	implicitFeatureSnap false;
	explicitFeatureSnap false;
	multiRegionFeatureSnap false;
}

addLayersControls
{
	layers
	{
		body
		{
			nSurfaceLayers 1;
		}
	}

	relativeSizes true;
	expansionRatio 1.0;
	finalLayerThickness 1.0;
	//firstLayerThickness 0.3;
	//thickness 0.3;
	minThickness 0.1;
	nGrow 1;
	featureAngle 100;
	maxFaceThicknessRatio 0.5;
	nSmoothSurfaceNormals 1;
	nSmoothThickness 2;
	minMedialAxisAngle 90;
	maxThicknessToMedialRatio 0.3;
	nSmoothNormals 3;
	nRelaxIter 5;
	nBufferCellsNoExtrude 0;
	nLayerIter 50;
	nRelaxedIter 20;
}

meshQualityControls
{
	maxNonOrtho 65;
	maxBoundarySkewness 20;
	maxInternalSkewness 4;
	maxConcave 180;
	minFlatness -1;
	minVol -1e30;
	minTetQuality -1e30;
	minArea 0;
	minTwist -1;
	minDeterminant 0.001;
	minFaceWeight 0.05;
	minVolRatio 0.01;
	minTriangleTwist -1;
	nSmoothScale 4;
	errorReduction 0.75;
}	
