FoamFile
{
	format ascii;
	class dictionary;
	object fvSchemes;
}

ddtSchemes
{
	default Euler;
}

gradSchemes
{
	default Gauss linear;
	limited cellLimited Gauss linear 1;
	
	grad(U) $limited;
	grad(k)	$limited;
	grad(omega) $limited;
}

divSchemes
{
	default none;
	turbulence /*bounded*/ Gauss limitedLinear 1;//for transient remove bounded

	div(phi,U) /*bounded*/ Gauss linearUpwind limited; 	
	div(phi,k) $turbulence;
	div(phi,omega) $turbulence;
	div(phi,epsilon) $turbulence
	div((nuEff*dev2(T(grad(U))))) Gauss linear;
}

snGradSchemes
{
	default corrected;
}

laplacianSchemes
{
	default Gauss linear corrected;
}

interpolationSchemes
{
	default linear;
}

wallDist
{
	method meshWave;
}
