FoamFile
{
	format ascii;
	class dictionary;
	object fvSolution;
}

solvers
{
	p
	{
		solver PCG;
		preconditioner FDIC;
		tolerance 1e-6;
		relTol 0.1;
	}

	pFinal
	{
		$p;
		relTol 0;
	}

	Phi
	{
		$p;
	}

	"(U|nuTilda)"
	{
		solver PBiCGStab;
		preconditioner DILU;
		tolerance 1e-6;
		relTol 0.1;
	}

	"(U|nuTilda)Final"
	{
		$U;
		relTol 0;
	}
}

SIMPLE
{
	residualControl
	{
		p 1e-5;
		U 1e-5;
		nuTilda 1e-5;
	}

	nNonOrthogonalCorrectors 0;
	pRefCell 0;
	pRefValue 0;
}

PIMPLE
{
	residualControl
	{
		p 1e-5;
		U 1e-5;
		nuTilda 1e-5;
	}

	transonic no;
	nCorrectors 2;
	nNonOrthogonalCorrectors 0;
	nOuterCorrectors 1;
}

potentialFlow
{
	nNonOrthogonalCorrectors 10;
}

relaxationFactors
{
	fields
	{
		p 0.6;
	}
	
	equations
	{
		U 0.7;
		nuTilda 0.7;
	}
}
