FoamFile
{
	format ascii;
	class dictionary;
	object momentumTransport;
}

simulationType RAS;

RAS
{
	model SpalartAllmaras;
	turbulence on;
	printCoeffs off;
}


